<?xml version='1.0' encoding='UTF-8'?>
<configuration xmlns:xsi="http://www.w3.org/2001/XMLSchema-instance" xsi:noNamespaceSchemaLocation="http://sumo.dlr.de/xsd/sumoConfiguration.xsd">
  <input>
    <net-file value="simple.net.xml"/>
    <route-files value="simple.rou.xml"/>
    <!-- <additional-files value="ring.add.xml"/> -->
    <!-- <gui-settings-file value="ring.gui.cfg"/> -->
  </input>
  <time>
    <begin value="0"/>
  </time>
  <report>
    <xml-validation value="never"/>
  </report>
</configuration>
