<?xml version="1.0" encoding="UTF-8"?>

<!-- generated on 2021-11-17 18:01:51 by Eclipse SUMO netedit Version 1.10.0
<configuration xmlns:xsi="http://www.w3.org/2001/XMLSchema-instance" xsi:noNamespaceSchemaLocation="http://sumo.dlr.de/xsd/netconvertConfiguration.xsd">

    <output>
        <output-file value="/Users/sarahbhaskaran/Documents/circles/cosim/scripts/simple/simple.net.xml"/>
    </output>

    <processing>
        <offset.disable-normalization value="true"/>
    </processing>

    <junctions>
        <no-turnarounds value="true"/>
    </junctions>

    <report>
        <aggregate-warnings value="5"/>
    </report>

</configuration>
-->

<net version="1.9" junctionCornerDetail="5" limitTurnSpeed="5.50" xmlns:xsi="http://www.w3.org/2001/XMLSchema-instance" xsi:noNamespaceSchemaLocation="http://sumo.dlr.de/xsd/net_file.xsd">

    <location netOffset="0.00,0.00" convBoundary="-1300.00,0.00,2700.00,400.00" origBoundary="10000000000.00,10000000000.00,-10000000000.00,-10000000000.00" projParameter="!"/>

    <edge id="gneE2" from="gneJ4" to="gneJ5" priority="-1">
        <lane id="gneE2_0" index="0" speed="13.89" length="4000.00" shape="-1300.00,398.40 2700.00,398.40"/>
    </edge>

    <junction id="gneJ0" type="dead_end" x="-600.00" y="200.00" incLanes="" intLanes="" shape="-600.00,200.00"/>
    <junction id="gneJ1" type="dead_end" x="1200.00" y="200.00" incLanes="" intLanes="" shape="1200.00,200.00"/>
    <junction id="gneJ2" type="dead_end" x="600.00" y="0.00" incLanes="" intLanes="" shape="600.00,0.00"/>
    <junction id="gneJ4" type="dead_end" x="-1300.00" y="400.00" incLanes="" intLanes="" shape="-1300.00,400.00 -1300.00,396.80"/>
    <junction id="gneJ5" type="dead_end" x="2700.00" y="400.00" incLanes="gneE2_0" intLanes="" shape="2700.00,396.80 2700.00,400.00"/>

</net>
