<?xml version='1.0' encoding='UTF-8'?>
<configuration xmlns:xsi="http://www.w3.org/2001/XMLSchema-instance" xsi:noNamespaceSchemaLocation="http://sumo.dlr.de/xsd/sumoConfiguration.xsd">
  <input>
    <net-file value="i24_subnetwork_fix_merges_with_downstream.net.xml"/>
    <route-files value="I24.rou.xml"/>
    <!-- <additional-files value="ring.add.xml"/> -->
    <!-- <gui-settings-file value="ring.gui.cfg"/> -->
  </input>
  <time>
    <begin value="0"/>
  </time>
  <report>
    <xml-validation value="never"/>
  </report>
</configuration>
